Referencia/OpenDSS/Examples/InverterModels/PVSystem2/InvControl2/MonitoredVoltage/Mon_voltage_average_LL_VLN_Node.Txt

LINE-GROUND and LINE-LINE VOLTAGES BY BUS & NODE

Bus  Node    VLN (kV)   Angle      pu     Base kV    Node-Node   VLL (kV)  Angle      pu

A .. 1       8.1522 /_    9.3    1.0232    13.800        1-2     14.123 /_   39.4    1.0234
   - 2       8.1605 /_ -110.6    1.0242    13.800        2-3     14.125 /_  -80.6    1.0236
   - 3       8.1539 /_  129.4    1.0234    13.800        3-1     14.129 /_  159.4    1.0238
B .. 1       8.1729 /_   12.3    1.0258    13.800        1-2     14.123 /_   42.1    1.0234
   - 2       8.1106 /_ -108.0     1.018    13.800        2-3     13.998 /_  -77.9    1.0144
   - 3       8.0794 /_  132.4    1.0141    13.800        3-1     14.077 /_  162.5    1.0201
